@<TRIPOS>MOLECULE
HPNPP.mol2
29 29 1 0 0
SMALL
AMBER ff14SB


@<TRIPOS>ATOM
      1 C1          7.2914    8.5187    1.9963 C.2       1 noname   -0.2522
      2 C2          6.3325    9.0883    1.1206 C.2       1 noname   -0.0430
      3 C3          6.3306   10.4645    0.8288 C.2       1 noname   -0.2095
      4 C4          7.2852   11.3178    1.4149 C.2       1 noname    0.3021
      5 C5          8.2797   10.7657    2.2463 C.2       1 noname   -0.2095
      6 C6          8.2790    9.3881    2.5350 C.2       1 noname   -0.0430
      7 N1          7.2572    7.2086    2.3059 N.2       1 noname    0.3232
      8 O1          7.2633   12.6591    1.1481 O.3       1 noname   -0.4825
      9 P1          6.3856   13.4837    2.1982 P         1 noname    1.4378
     10 O2          6.9824   13.4204    3.5364 O.2       1 noname   -0.8030
     11 O3          4.9081   12.9122    2.2374 O.3       1 noname   -0.8030
     12 O4          6.3270   15.0083    1.7232 O.3       1 noname   -0.5622
     13 C7          5.8111   15.2226    0.3941 C.3       1 noname    0.1984
     14 C8          5.7790   16.7406    0.0936 C.3       1 noname    0.1101
     15 O5          5.2755   16.9499   -1.2246 O.3       1 noname   -0.6148
     16 C9          4.9196   17.5426    1.0997 C.3       1 noname   -0.1391
     17 H1          5.3525   17.9160   -1.3781 H         1 noname    0.3830
     18 O6          8.0199    6.7038    3.0336 O.2       1 noname   -0.2485
     19 O7          6.3776    6.4146    1.8460 O.3       1 noname   -0.2485
     20 H2          5.6166    8.5038    0.6822 H         1 noname    0.1505
     21 H3          5.6268   10.8506    0.1941 H         1 noname    0.1635
     22 H4          9.0013   11.3701    2.6478 H         1 noname    0.1635
     23 H5          9.0113    9.0234    3.1481 H         1 noname    0.1505
     24 H6          4.7992   14.8197    0.2850 H         1 noname    0.0452
     25 H7          6.4593   14.7475   -0.3484 H         1 noname    0.0452
     26 H8          6.8011   17.1264    0.1210 H         1 noname    0.0447
     27 H9          4.9169   18.5995    0.8303 H         1 noname    0.0474
     28 H10         3.8903   17.1812    1.1020 H         1 noname    0.0474
     29 H11         5.3267   17.4497    2.1076 H         1 noname    0.0474
@<TRIPOS>BOND
     1    1    2 1
     2    1    6 2
     3    2    3 2
     4    3    4 1
     5    4    5 2
     6    5    6 1
     7    1    7 1
     8    4    8 1
     9    8    9 1
    10    9   10 2
    11    9   11 1
    12    9   12 1
    13   12   13 1
    14   13   14 1
    15   14   15 1
    16   14   16 1
    17   15   17 1
    18    7   18 2
    19    7   19 1
    20    2   20 1
    21    3   21 1
    22    5   22 1
    23    6   23 1
    24   13   24 1
    25   13   25 1
    26   14   26 1
    27   16   27 1
    28   16   28 1
    29   16   29 1
@<TRIPOS>SUBSTRUCTURE
     1 noname     1 RESIDUE           4 A     noname     0 ROOT
