#
# Generated by PyRED version APR-2018
#     http://q4md-forcefieldtools.org
#
@<TRIPOS>MOLECULE
F00_0
    80    79     1     0     1
SMALL
USER_CHARGES
@<TRIPOS>ATOM
   1 C1     5.194143   0.411922   0.448048 C    1   F00  0.6662  0.0000 ****
   2 O20    5.206726  -0.350688   1.380808 O    1   F00 -0.4600  0.0000 ****
   3 C2     2.887788   1.188297   0.801772 CT   1   F00  0.1094  0.0000 ****
   4 H36    2.973230   1.827892   1.672142 H1   1   F00  0.0845  0.0000 ****
   5 H43    2.700436   0.182407   1.147592 H1   1   F00  0.0845  0.0000 ****
   6 C3    -2.096989   2.066846   0.338430 CT   1   F00  0.0060  0.0000 ****
   7 H38   -2.277835   1.053050   0.689366 HC   1   F00 -0.0241  0.0000 ****
   8 H55   -2.093751   2.701597   1.222474 HC   1   F00 -0.0241  0.0000 ****
   9 C4    -3.239667   2.485596  -0.588371 CT   1   F00 -0.0344  0.0000 ****
  10 H37   -3.207855   1.875933  -1.489383 HC   1   F00  0.0310  0.0000 ****
  11 H44   -3.087377   3.515483  -0.908476 HC   1   F00  0.0310  0.0000 ****
  12 C5    -4.615979   2.340285   0.062056 CT   1   F00  0.0181  0.0000 ****
  13 H46   -4.678584   2.970360   0.947111 HC   1   F00  0.1068  0.0000 ****
  14 H56   -4.757008   1.315657   0.388271 HC   1   F00  0.1068  0.0000 ****
  15 C6    -5.752272   2.696436  -0.896529 CT   1   F00 -0.4013  0.0000 ****
  16 H47   -5.664317   2.108020  -1.800317 H1   1   F00  0.1762  0.0000 ****
  17 H57   -5.694283   3.742018  -1.179834 H1   1   F00  0.1762  0.0000 ****
  18 C7    -7.618564   1.228984  -0.290522 C    1   F00  0.6666  0.0000 ****
  19 O21   -7.041965   0.261231  -0.714179 O    1   F00 -0.7217  0.0000 ****
  20 C8    -8.989669   1.142144   0.355367 CT   1   F00  0.0682  0.0000 ****
  21 H39   -9.482049   2.110435   0.328980 HC   1   F00 -0.0449  0.0000 ****
  22 H45   -8.826582   0.905215   1.405053 HC   1   F00 -0.0449  0.0000 ****
  23 C9    -9.877062   0.073578  -0.283858 CT   1   F00  0.0528  0.0000 ****
  24 H48   -9.348229  -0.872066  -0.269872 HC   1   F00  0.0176  0.0000 ****
  25 H58  -10.036583   0.321221  -1.330524 HC   1   F00  0.0176  0.0000 ****
  26 C10  -11.226366  -0.064572   0.422462 CT   1   F00 -0.0819  0.0000 ****
  27 H40  -11.743711   0.893598   0.412890 HC   1   F00  0.0335  0.0000 ****
  28 H49  -11.061188  -0.310971   1.470277 HC   1   F00  0.0335  0.0000 ****
  29 C11  -12.124561  -1.128715  -0.210612 CT   1   F00 -0.0206  0.0000 ****
  30 H50  -11.606504  -2.085989  -0.201985 HC   1   F00 -0.0072  0.0000 ****
  31 H59  -12.290268  -0.881737  -1.257765 HC   1   F00 -0.0072  0.0000 ****
  32 C12  -13.474234  -1.276364   0.494031 CT   1   F00  0.0502  0.0000 ****
  33 H41  -13.991005  -0.318075   0.485748 HC   1   F00 -0.0083  0.0000 ****
  34 H51  -13.307932  -1.523299   1.541363 HC   1   F00 -0.0083  0.0000 ****
  35 C13  -14.372935  -2.340003  -0.138946 CT   1   F00 -0.0126  0.0000 ****
  36 H52  -13.856724  -3.298739  -0.130986 HC   1   F00  0.0081  0.0000 ****
  37 H60  -14.539929  -2.093461  -1.186278 HC   1   F00  0.0081  0.0000 ****
  38 C14  -15.722982  -2.489023   0.564719 CT   1   F00 -0.0103  0.0000 ****
  39 H42  -16.240803  -1.532212   0.556071 HC   1   F00  0.0145  0.0000 ****
  40 H53  -15.557927  -2.736756   1.611253 HC   1   F00  0.0145  0.0000 ****
  41 N16    4.174562   1.176424   0.086853 N    1   F00 -0.7060  0.0000 ****
  42 H54    4.273843   1.800834  -0.683607 H    1   F00  0.3704  0.0000 ****
  43 Zn2    9.348123  -0.124165  -0.933839 Zn   1   F00  1.3995  0.0000 ****
  44 N17   -7.067728   2.464979  -0.336632 N    1   F00 -0.5409  0.0000 ****
  45 H62   -7.573557   3.233260   0.037396 H    1   F00  0.3932  0.0000 ****
  46 N18   10.446872  -0.242539   0.750426 NT   1   F00 -0.8285  0.0000 ****
  47 H70   11.101313   0.490274   0.962025 H    1   F00  0.4861  0.0000 ****
  48 C19    1.771848   1.667090  -0.119557 CT   1   F00 -0.0727  0.0000 ****
  49 H63    1.731444   1.022355  -0.994191 HC   1   F00  0.0841  0.0000 ****
  50 H64    1.997584   2.671760  -0.474135 HC   1   F00  0.0841  0.0000 ****
  51 C22    0.410528   1.668698   0.580616 CT   1   F00 -0.2889  0.0000 ****
  52 H61    0.196795   0.666557   0.945438 HC   1   F00  0.1089  0.0000 ****
  53 H66    0.453844   2.313474   1.455514 HC   1   F00  0.1089  0.0000 ****
  54 C23    9.415767  -0.308096   1.838612 CT   1   F00 -0.1335  0.0000 ****
  55 H71    9.755435   0.263658   2.691063 H1   1   F00  0.1775  0.0000 ****
  56 H77    9.332609  -1.332361   2.168175 H1   1   F00  0.1775  0.0000 ****
  57 C24   -0.725588   2.125744  -0.336808 CT   1   F00 -0.0258  0.0000 ****
  58 H65   -0.739302   1.500126  -1.227243 HC   1   F00  0.0411  0.0000 ****
  59 H67   -0.529397   3.140881  -0.676983 HC   1   F00  0.0411  0.0000 ****
  60 N25    7.597764  -0.263632   0.063597 NT   1   F00 -0.6496  0.0000 ****
  61 C26    8.052972   0.247431   1.403293 CT   1   F00 -0.0067  0.0000 ****
  62 H72    7.314609   0.016065   2.154340 H1   1   F00  0.1454  0.0000 ****
  63 H78    8.115770   1.326651   1.316310 H1   1   F00  0.1454  0.0000 ****
  64 N27    9.485491  -2.121039  -1.185987 NT   1   F00 -0.8285  0.0000 ****
  65 H69    9.833270  -2.485592  -2.055422 H    1   F00  0.4861  0.0000 ****
  66 C28    6.441052   0.518514  -0.449562 CT   1   F00 -0.1243  0.0000 ****
  67 H34    6.195645   0.155621  -1.441326 H1   1   F00  0.1360  0.0000 ****
  68 H35    6.738819   1.556495  -0.544651 H1   1   F00  0.1360  0.0000 ****
  69 C29    7.327987  -1.746830   0.066569 CT   1   F00 -0.0067  0.0000 ****
  70 H73    6.269839  -1.927055  -0.014330 H1   1   F00  0.1454  0.0000 ****
  71 H79    7.613422  -2.143726   1.027336 H1   1   F00  0.1454  0.0000 ****
  72 C30    8.041010  -2.492578  -1.070123 CT   1   F00 -0.1335  0.0000 ****
  73 H74    7.936001  -3.558549  -0.911249 H1   1   F00  0.1775  0.0000 ****
  74 H80    7.583715  -2.259566  -2.024575 H1   1   F00  0.1775  0.0000 ****
  75 C31   10.351964  -2.615177  -0.068288 CT   1   F00 -0.1186  0.0000 ****
  76 H75   11.000812  -3.399041  -0.432967 H1   1   F00  0.1864  0.0000 ****
  77 H81    9.717442  -3.060751   0.682963 H1   1   F00  0.1864  0.0000 ****
  78 C32   11.220129  -1.502031   0.537666 CT   1   F00 -0.1186  0.0000 ****
  79 H76   11.646843  -1.848539   1.470442 H1   1   F00  0.1864  0.0000 ****
  80 H82   12.038299  -1.259522  -0.129200 H1   1   F00  0.1864  0.0000 ****
@<TRIPOS>BOND
    1     1     2 1
    2     1    41 1
    3     1    66 1
    4     3     4 1
    5     3     5 1
    6     3    41 1
    7     3    48 1
    8     6     7 1
    9     6     8 1
   10     6     9 1
   11     6    57 1
   12     9    10 1
   13     9    11 1
   14     9    12 1
   15    12    13 1
   16    12    14 1
   17    12    15 1
   18    15    16 1
   19    15    17 1
   20    15    44 1
   21    18    19 1
   22    18    20 1
   23    18    44 1
   24    20    21 1
   25    20    22 1
   26    20    23 1
   27    23    24 1
   28    23    25 1
   29    23    26 1
   30    26    27 1
   31    26    28 1
   32    26    29 1
   33    29    30 1
   34    29    31 1
   35    29    32 1
   36    32    33 1
   37    32    34 1
   38    32    35 1
   39    35    36 1
   40    35    37 1
   41    35    38 1
   42    38    39 1
   43    38    40 1
   44    41    42 1
   45    44    45 1
   46    46    47 1
   47    46    54 1
   48    46    78 1
   49    48    49 1
   50    48    50 1
   51    48    51 1
   52    51    52 1
   53    51    53 1
   54    51    57 1
   55    54    55 1
   56    54    56 1
   57    54    61 1
   58    57    58 1
   59    57    59 1
   60    60    61 1
   61    60    66 1
   62    60    69 1
   63    61    62 1
   64    61    63 1
   65    64    65 1
   66    64    72 1
   67    64    75 1
   68    66    67 1
   69    66    68 1
   70    69    70 1
   71    69    71 1
   72    69    72 1
   73    72    73 1
   74    72    74 1
   75    75    76 1
   76    75    77 1
   77    75    78 1
   78    78    79 1
   79    78    80 1
@<TRIPOS>SUBSTRUCTURE
      1 F00               1 ****               0 ****  ****
@<TRIPOS>HEADTAIL
C14 1
0 0
@<TRIPOS>RESIDUECONNECT
1 C14 0 0 0 0 0
